LTspice 24.0.12 for Windows
Circuit: * C:\Users\Ben\Documents\LTspice\Draft1.asc
Start Time: Sat Nov 16 13:38:11 2024
solver = Normal
Maximum thread count: 4
tnom = 27
temp = 27
method = modified trap
Direct Newton iteration for .op point succeeded.
Total elapsed time: 0.311 seconds.

